CM 
CM forw: 56, 0 ; back: 56, 180
CE
SY freq=3.52
SY H=45
SY L=89.5383
SY wrad=0.8*1e-3
GW	1	10	0	0	H	0	0.7*0.25*L	H-0.7*0.25*L	wrad
GW	2	10	0	0	H	0	-0.7*0.25*L	H-0.7*0.25*L	wrad
GW	3	10	0	0.7*0.25*L	H-0.7*0.25*L	0	0.5	H-1.4*0.25*L	wrad
GW	4	10	0	-0.7*0.25*L	H-0.7*0.25*L	0	-0.5	H-1.4*0.25*L	wrad
GW	5	1	0	0.5	H-1.4*0.25*L	0	-0.5	H-1.4*0.25*L	wrad
GE	1
LD	5	0	0	0	58000000
GN	2	0	0	0	13	0.005
EK
EX	0	5	1	0	1	0	0
FR,0,1,0,0,3.52
PQ -1
PT -1
RP,0,36,73,1000,-89,0,5,5
