CM =======
CM forw: 18, 68 ; back:-18, 68
CE
SY freq=138
SY R=1.07
SY theta=90
SY wrad=0.8e-3
SY H=4
GW	1	11	-R/2	0	H	R/2	0	H	wrad
GW	2	11	0	-R/2	H+0.05	0	R/2	H+0.05	wrad
GE	1
LD	5	0	0	0	58000000
GN	2	0	0	0	17	0.015
EK
EX	0	1	6	0	1	0	0
EX	0	2	6	0	0	1	0
FR,0,1,0,0,138
PQ -1
PT -1
RP,0,91,1,1000,-90,68,2
