CM =======
CE
SY freq=7
SY w=0.05
SY m=3
SY wrad=5e-3
SY R=3
SY N=7
GW	1	100	0	0	m	0	0	0.005	wrad
GW	2	2	0	0	m	0	0	m+w	wrad
GW	3	25	0	0	0.005	R	0	0.005	1e-3
GM	1	N-1	0	0	360/N	0	0	0	3
GW	N+3	50	0	0	0.005	-m*2	0	0.005	1e-3
GE	1
LD	5	0	0	0	58000000
GN	2	0	0	0	13	0.005
EK
EX	0	1	1	0	1	0	0
FR	0	0	0	0	freq	0
EN
