CM 
CE
SY freq=28.1
SY A=5
SY H=4
SY W=1
SY wrad=0.8*1e-3
SY irad=1.6*1e-3
GW	1	5	0	W/2	A	0	-W/2	A	wrad
GW	2	5	0	W/2	A+H	0	-W/2	A+H	wrad
GW	3	15	0	W/2	A	0	W/2	A+H	wrad
GW	4	15	0	-W/2	A	0	-W/2	A+H	wrad
GE	1
LD	5	0	0	0	58000000
GN	2	0	0	0	13	0.005
EK
EX	0	1	3	0	1	0	0
FR	0	0	0	0	freq	0
EN
