CM =======
CE
SY freq=7
SY L=12
SY H=2
SY wrad=1e-3
SY R=470
GW	1	5	0	0	0	0	0	H	wrad
GW	2	30	0	0	H	-L	0	H	wrad
GW	3	5	-L	0	0	-L	0	H	wrad
GE	1
LD	5	0	0	0	58000000
LD	0	3	1	1	R	0
GN	2	0	0	0	13	0.005
EK
EX	0	1	1	0	1	0	0
FR	0	0	0	0	freq	0
EN
