CM 
CE
SY freq=10.11
SY H=6.043163
SY H2=1
SY H3=1.5
SY L=16.99669
SY L2=107.0789
SY prad=30*0.5*1e-3
GW	1	20	0	0	0	0	0	H	prad
GW	2	4	0	0	H	0	0	H+H2	prad*3/4
GW	3	4	0	0	H+H2	0	0	H+H2+H3	prad*2/3
GE	1
LD	5	0	0	0	37700000
LD	0	2	1	1	0.5	L*1e-6
LD	0	3	1	1	1	L2*1e-6
GN	0	16	0	0	13	0.005	10	1.e-3
EK
EX	0	1	1	0	1	0	0
FR	0	0	0	0	freq	0
EN
