CM 
CE
SY L=23
SY C=1.5
SY R=L
GW	1	50	0	0	0.05	0	0	L	0.005
GW	2	3	0	0	L	C	0	L	0.005
GM	1	2	0	0	120	0	0	0	2
GW	5	50	0	0	0.05	R	0	0.05	0.001
GM	1	31	0	0	360/32	0	0	0	5
GE	1
LD	5	0	0	0	58000000
LD	7	1	0	0	3.5	0.08
GN	2	0	0	0	17	0.015
EK
EX	0	1	1	0	1	0	0
FR	0	0	0	0	1.4	0
EN
