CM =======
CE
SY freq=138
SY L=1.038876
SY R=0.5
SY wrad=0.8e-3
SY H=4
GW	1	9	0	R*L/2	H	0	-R*L/2	H	wrad
GW	2	9	0	R*L/2	H	0	R*L/2	H+((1-R)*L/2)	wrad
GW	3	9	0	-R*L/2	H	0	-R*L/2	H-((1-R)*L/2)	wrad
GE	1
LD	5	0	0	0	58000000
GN	2	0	0	0	17	0.015
EK
EX	0	1	5	0	1	0	0
FR	0	0	0	0	freq	0
EN
