CM 
CE
SY freq=124
SY D=1.06399
SY R=1.179815
SY Dir=0.949138
SY RD=0.563213
SY DDir=0.615821
SY H=4
GW	1	11	0	0	H-D/2	0	0	H+D/2	0.01
GW	2	11	-RD	0	H-R/2	-RD	0	H+R/2	0.01
GW	3	11	DDir	0	H-Dir/2	DDir	0	H+Dir/2	0.01
GE	1
LD	5	0	0	0	37700000
GN	2	0	0	0	17	0.015
EK
EX	0	1	6	0	1	0	0
FR	0	0	0	0	freq	0
EN
