CM 
CM forw: 70, 0 ; back: 70, 180
CE
SY freq=1.4
SY L=23
SY C=1.5
SY R=L
SY Ind=6.221e-5
SY XL=2*3.14*freq*1e6*Ind
SY RL=XL/200
GW	1	50	0	0	0.05	0	0	L	0.005
GW	2	3	0	0	L	C	0	L	0.005
GM	1	2	0	0	120	0	0	0	2
GW	5	50	0	0	0.05	R	0	0.05	0.001
GM	1	31	0	0	360/32	0	0	0	5
GE	1
LD	5	0	0	0	58000000
LD	7	1	0	0	3.5	0.08
LD	0	1	15	15	RL	Ind
GN	2	0	0	0	17	0.015
EK
EX	0	1	1	0	1	0	0
FR,0,1,0,0,1.4
PQ -1
PT -1
