CM =======
CM forw: 0, 0 ; back: 0, 180
CE
SY freq=7
SY L=12
SY H=2
SY wrad=2e-3
SY R=470
SY C=1.e-11
GW	1	5	0	-0.75*tan(22.4)	-0.75	0	0.75*tan(22.5)	-0.75	wrad
GM	1	7	45	0	0	0	0	0	1
GM	0	0	0	0	0	0	0	5	1
GE	1
LD	0	5	3	3	0	0	C
GN	2	0	0	0	13	0.005
EK
EX	0	1	3	0	1	0	0
FR,0,1,0,0,7
PQ -1
PT -1
RP,0,91,181,1000,-90,0,2,2
