CM 
CE
SY L=214/4
SY C=1.5
GW	1	50	0	0	0	0	0	L	0.005
GW	2	3	0	0	L	C	0	L	0.005
GM	1	2	0	0	120	0	0	0	2
GE	1
LD	5	0	0	0	58000000
LD	7	1	0	0	2.1	0.02
GN	0	30	0	0	17	0.015	50	1.e-6
EK
EX	0	1	1	0	1	0	0
FR	0	0	0	0	1.4	0
EN
